<?xml version="1.0"?>

<routes xmlns:xsi="http://www.w3.org/2001/XMLSchema-instance" xsi:noNamespaceSchemaLocation="http://sumo.dlr.de/xsd/routes_file.xsd">

<vType id="type1" accel="0.5" decel="4.5" sigma="0.5" length="5" minGap="2.5" maxSpeed="16.67" color="255,105,180"/>
<vType id="type0" accel="0.3" decel="4.5" sigma="0.5" length="7" minGap="3" maxSpeed="25" color="0,255,255"/>

<route id="0" edges="8949170 -52016249"/> 
<route id="1" edges="8949170 164126513"/> 
<route id="2" edges="8949170 164126511"/> 
<route id="3" edges="-164126513 164126511"/> 
<route id="4" edges="-164126513 -8949170"/> 
<route id="5" edges="-164126513 -52016249"/> 
<route id="6" edges="52016249 164126513"/> 
<route id="7" edges="52016249 164126511"/> 
<route id="8" edges="52016249 -8949170"/> 
<route id="9" edges="-164126511 -8949170"/> 
<route id="10" edges="-164126511 -52016249"/> 
<route id="11" edges="-164126511 164126513"/> 

<vehicle id="0" depart="308.0" route="1" type="type1"/>
<vehicle id="1" depart="648.0" route="3" type="type1"/>
<vehicle id="2" depart="738.0" route="4" type="type1"/>
<vehicle id="3" depart="888.0" route="1" type="type0"/>
<vehicle id="4" depart="1074.0" route="4" type="type1"/>
<vehicle id="5" depart="1154.0" route="4" type="type0"/>
<vehicle id="6" depart="1184.0" route="4" type="type1"/>
<vehicle id="7" depart="1538.0" route="4" type="type1"/>
<vehicle id="8" depart="1860.0" route="1" type="type0"/>
<vehicle id="9" depart="1994.0" route="4" type="type1"/>
<vehicle id="10" depart="2132.0" route="1" type="type1"/>
<vehicle id="11" depart="2300.0" route="3" type="type0"/>
<vehicle id="12" depart="2338.0" route="1" type="type0"/>
<vehicle id="13" depart="2822.0" route="1" type="type0"/>
<vehicle id="14" depart="2844.0" route="3" type="type0"/>
<vehicle id="15" depart="2986.0" route="3" type="type1"/>
<vehicle id="16" depart="3124.0" route="1" type="type0"/>
<vehicle id="17" depart="3134.0" route="3" type="type0"/>
<vehicle id="18" depart="3200.0" route="3" type="type0"/>
<vehicle id="19" depart="3284.0" route="4" type="type1"/>
<vehicle id="20" depart="3286.0" route="4" type="type0"/>
<vehicle id="21" depart="3356.0" route="3" type="type1"/>
<vehicle id="22" depart="3446.0" route="4" type="type0"/>
<vehicle id="23" depart="3454.0" route="3" type="type1"/>
<vehicle id="24" depart="3514.0" route="4" type="type1"/>
<vehicle id="25" depart="3692.0" route="3" type="type0"/>
<vehicle id="26" depart="3736.0" route="3" type="type0"/>
<vehicle id="27" depart="3856.0" route="3" type="type0"/>
<vehicle id="28" depart="4132.0" route="3" type="type1"/>
<vehicle id="29" depart="4306.0" route="3" type="type1"/>
<vehicle id="30" depart="4408.0" route="3" type="type1"/>
<vehicle id="31" depart="4544.0" route="1" type="type1"/>
<vehicle id="32" depart="4588.0" route="3" type="type0"/>
<vehicle id="33" depart="5220.0" route="1" type="type1"/>
<vehicle id="34" depart="5244.0" route="3" type="type0"/>
<vehicle id="35" depart="5308.0" route="3" type="type1"/>
<vehicle id="36" depart="5356.0" route="3" type="type1"/>
<vehicle id="37" depart="5368.0" route="4" type="type0"/>
<vehicle id="38" depart="5398.0" route="4" type="type1"/>
<vehicle id="39" depart="5418.0" route="3" type="type1"/>
<vehicle id="40" depart="5520.0" route="4" type="type0"/>
<vehicle id="41" depart="5532.0" route="1" type="type0"/>
<vehicle id="42" depart="5596.0" route="4" type="type0"/>
<vehicle id="43" depart="5646.0" route="3" type="type0"/>
<vehicle id="44" depart="5726.0" route="1" type="type1"/>
<vehicle id="45" depart="5994.0" route="3" type="type0"/>
<vehicle id="46" depart="6002.0" route="1" type="type0"/>
<vehicle id="47" depart="6192.0" route="4" type="type0"/>
<vehicle id="48" depart="6300.0" route="1" type="type0"/>
<vehicle id="49" depart="6318.0" route="3" type="type1"/>
<vehicle id="50" depart="6374.0" route="6" type="type1"/>
<vehicle id="51" depart="6418.0" route="1" type="type0"/>
<vehicle id="52" depart="6634.0" route="3" type="type1"/>
<vehicle id="53" depart="6662.0" route="3" type="type1"/>
<vehicle id="54" depart="6768.0" route="1" type="type0"/>
<vehicle id="55" depart="7100.0" route="1" type="type1"/>
<vehicle id="56" depart="7314.0" route="3" type="type0"/>
<vehicle id="57" depart="7316.0" route="3" type="type1"/>
<vehicle id="58" depart="7430.0" route="3" type="type0"/>
<vehicle id="59" depart="7476.0" route="4" type="type1"/>
<vehicle id="60" depart="7478.0" route="3" type="type0"/>
<vehicle id="61" depart="7496.0" route="3" type="type1"/>
<vehicle id="62" depart="7546.0" route="3" type="type0"/>
<vehicle id="63" depart="7598.0" route="3" type="type1"/>
<vehicle id="64" depart="7774.0" route="3" type="type1"/>
<vehicle id="65" depart="7814.0" route="3" type="type0"/>
<vehicle id="66" depart="7816.0" route="1" type="type1"/>
<vehicle id="67" depart="7872.0" route="1" type="type1"/>
<vehicle id="68" depart="7894.0" route="3" type="type1"/>
<vehicle id="69" depart="7900.0" route="3" type="type0"/>
<vehicle id="70" depart="7954.0" route="1" type="type0"/>
<vehicle id="71" depart="8082.0" route="1" type="type1"/>
<vehicle id="72" depart="8128.0" route="3" type="type0"/>
<vehicle id="73" depart="8190.0" route="1" type="type1"/>
<vehicle id="74" depart="8260.0" route="2" type="type0"/>
<vehicle id="75" depart="8380.0" route="1" type="type1"/>
<vehicle id="76" depart="8398.0" route="3" type="type0"/>
<vehicle id="77" depart="8436.0" route="3" type="type1"/>
<vehicle id="78" depart="8604.0" route="6" type="type0"/>
<vehicle id="79" depart="8678.0" route="3" type="type1"/>
<vehicle id="80" depart="8728.0" route="3" type="type1"/>
<vehicle id="81" depart="8804.0" route="3" type="type1"/>
<vehicle id="82" depart="8826.0" route="1" type="type1"/>
<vehicle id="83" depart="8886.0" route="3" type="type1"/>
<vehicle id="84" depart="8938.0" route="1" type="type1"/>
<vehicle id="85" depart="9070.0" route="4" type="type1"/>
<vehicle id="86" depart="9122.0" route="3" type="type1"/>
<vehicle id="87" depart="9138.0" route="1" type="type0"/>
<vehicle id="88" depart="9168.0" route="1" type="type0"/>
<vehicle id="89" depart="9228.0" route="3" type="type1"/>
<vehicle id="90" depart="9300.0" route="4" type="type0"/>
<vehicle id="91" depart="9350.0" route="3" type="type1"/>
<vehicle id="92" depart="9358.0" route="1" type="type0"/>
<vehicle id="93" depart="9376.0" route="3" type="type1"/>
<vehicle id="94" depart="9384.0" route="3" type="type1"/>
<vehicle id="95" depart="9392.0" route="3" type="type1"/>
<vehicle id="96" depart="9444.0" route="3" type="type0"/>
<vehicle id="97" depart="9454.0" route="3" type="type0"/>
<vehicle id="98" depart="9492.0" route="3" type="type1"/>
<vehicle id="99" depart="9522.0" route="1" type="type1"/>
<vehicle id="100" depart="9526.0" route="1" type="type0"/>
<vehicle id="101" depart="9636.0" route="3" type="type1"/>
<vehicle id="102" depart="9648.0" route="3" type="type1"/>
<vehicle id="103" depart="9664.0" route="3" type="type0"/>
<vehicle id="104" depart="9764.0" route="3" type="type0"/>
<vehicle id="105" depart="9836.0" route="1" type="type0"/>
<vehicle id="106" depart="9890.0" route="1" type="type0"/>
<vehicle id="107" depart="10020.0" route="4" type="type0"/>
<vehicle id="108" depart="10132.0" route="3" type="type0"/>
<vehicle id="109" depart="10388.0" route="3" type="type1"/>
<vehicle id="110" depart="10448.0" route="1" type="type0"/>
<vehicle id="111" depart="10476.0" route="1" type="type0"/>
<vehicle id="112" depart="10486.0" route="1" type="type0"/>
<vehicle id="113" depart="10488.0" route="3" type="type0"/>
<vehicle id="114" depart="10548.0" route="1" type="type1"/>
<vehicle id="115" depart="10628.0" route="3" type="type1"/>
<vehicle id="116" depart="10710.0" route="3" type="type1"/>
<vehicle id="117" depart="10726.0" route="3" type="type1"/>
<vehicle id="118" depart="10756.0" route="6" type="type0"/>
<vehicle id="119" depart="10772.0" route="1" type="type0"/>
<vehicle id="120" depart="10784.0" route="3" type="type1"/>
<vehicle id="121" depart="10798.0" route="3" type="type0"/>
<vehicle id="122" depart="10834.0" route="6" type="type0"/>
<vehicle id="123" depart="10894.0" route="2" type="type1"/>
<vehicle id="124" depart="10898.0" route="6" type="type0"/>
<vehicle id="125" depart="10994.0" route="3" type="type1"/>
<vehicle id="126" depart="11022.0" route="1" type="type1"/>
<vehicle id="127" depart="11028.0" route="3" type="type0"/>
<vehicle id="128" depart="11086.0" route="1" type="type0"/>
<vehicle id="129" depart="11126.0" route="6" type="type1"/>
<vehicle id="130" depart="11130.0" route="1" type="type0"/>
<vehicle id="131" depart="11138.0" route="3" type="type1"/>
<vehicle id="132" depart="11198.0" route="1" type="type1"/>
<vehicle id="133" depart="11220.0" route="3" type="type0"/>
<vehicle id="134" depart="11382.0" route="3" type="type1"/>
<vehicle id="135" depart="11468.0" route="1" type="type0"/>
<vehicle id="136" depart="11518.0" route="1" type="type1"/>
<vehicle id="137" depart="11528.0" route="1" type="type1"/>
<vehicle id="138" depart="11582.0" route="1" type="type1"/>
<vehicle id="139" depart="11604.0" route="3" type="type0"/>
<vehicle id="140" depart="11632.0" route="3" type="type0"/>
<vehicle id="141" depart="11718.0" route="1" type="type1"/>
<vehicle id="142" depart="11764.0" route="1" type="type0"/>
<vehicle id="143" depart="11844.0" route="1" type="type0"/>
<vehicle id="144" depart="11858.0" route="3" type="type1"/>
<vehicle id="145" depart="11880.0" route="3" type="type1"/>
<vehicle id="146" depart="11900.0" route="3" type="type0"/>
<vehicle id="147" depart="11912.0" route="3" type="type1"/>
<vehicle id="148" depart="11918.0" route="1" type="type1"/>
<vehicle id="149" depart="12010.0" route="3" type="type1"/>
<vehicle id="150" depart="12094.0" route="1" type="type0"/>
<vehicle id="151" depart="12122.0" route="1" type="type0"/>
<vehicle id="152" depart="12150.0" route="3" type="type0"/>
<vehicle id="153" depart="12206.0" route="2" type="type1"/>
<vehicle id="154" depart="12292.0" route="3" type="type0"/>
<vehicle id="155" depart="12388.0" route="3" type="type1"/>
<vehicle id="156" depart="12400.0" route="3" type="type1"/>
<vehicle id="157" depart="12442.0" route="3" type="type0"/>
<vehicle id="158" depart="12468.0" route="3" type="type0"/>
<vehicle id="159" depart="12518.0" route="6" type="type1"/>
<vehicle id="160" depart="12544.0" route="6" type="type1"/>
<vehicle id="161" depart="12568.0" route="3" type="type1"/>
<vehicle id="162" depart="12614.0" route="2" type="type0"/>
<vehicle id="163" depart="12622.0" route="3" type="type1"/>
<vehicle id="164" depart="12630.0" route="3" type="type0"/>
<vehicle id="165" depart="12654.0" route="3" type="type0"/>
<vehicle id="166" depart="12700.0" route="1" type="type1"/>
<vehicle id="167" depart="12782.0" route="6" type="type1"/>
<vehicle id="168" depart="12842.0" route="3" type="type1"/>
<vehicle id="169" depart="12854.0" route="3" type="type1"/>
<vehicle id="170" depart="12884.0" route="3" type="type0"/>
<vehicle id="171" depart="12896.0" route="3" type="type1"/>
<vehicle id="172" depart="12898.0" route="3" type="type1"/>
<vehicle id="173" depart="12900.0" route="3" type="type0"/>
<vehicle id="174" depart="12904.0" route="1" type="type1"/>
<vehicle id="175" depart="12910.0" route="3" type="type0"/>
<vehicle id="176" depart="12926.0" route="3" type="type1"/>
<vehicle id="177" depart="12958.0" route="3" type="type1"/>
<vehicle id="178" depart="13048.0" route="3" type="type0"/>
<vehicle id="179" depart="13056.0" route="3" type="type0"/>
<vehicle id="180" depart="13102.0" route="3" type="type1"/>
<vehicle id="181" depart="13146.0" route="3" type="type0"/>
<vehicle id="182" depart="13182.0" route="3" type="type0"/>
<vehicle id="183" depart="13198.0" route="4" type="type0"/>
<vehicle id="184" depart="13216.0" route="3" type="type1"/>
<vehicle id="185" depart="13226.0" route="3" type="type0"/>
<vehicle id="186" depart="13228.0" route="3" type="type0"/>
<vehicle id="187" depart="13236.0" route="1" type="type0"/>
<vehicle id="188" depart="13244.0" route="1" type="type0"/>
<vehicle id="189" depart="13280.0" route="3" type="type0"/>
<vehicle id="190" depart="13300.0" route="3" type="type1"/>
<vehicle id="191" depart="13326.0" route="1" type="type1"/>
<vehicle id="192" depart="13336.0" route="1" type="type1"/>
<vehicle id="193" depart="13366.0" route="3" type="type1"/>
<vehicle id="194" depart="13390.0" route="3" type="type0"/>
<vehicle id="195" depart="13470.0" route="3" type="type0"/>
<vehicle id="196" depart="13508.0" route="1" type="type1"/>
<vehicle id="197" depart="13524.0" route="6" type="type0"/>
<vehicle id="198" depart="13614.0" route="6" type="type0"/>
<vehicle id="199" depart="13642.0" route="1" type="type1"/>
<vehicle id="200" depart="13674.0" route="3" type="type0"/>
<vehicle id="201" depart="13746.0" route="2" type="type0"/>
<vehicle id="202" depart="13768.0" route="1" type="type1"/>
<vehicle id="203" depart="13810.0" route="1" type="type0"/>
<vehicle id="204" depart="13828.0" route="3" type="type1"/>
<vehicle id="205" depart="13846.0" route="1" type="type1"/>
<vehicle id="206" depart="13848.0" route="1" type="type1"/>
<vehicle id="207" depart="13856.0" route="3" type="type1"/>
<vehicle id="208" depart="13894.0" route="3" type="type1"/>
<vehicle id="209" depart="13918.0" route="3" type="type1"/>
<vehicle id="210" depart="13960.0" route="3" type="type1"/>
<vehicle id="211" depart="13966.0" route="1" type="type0"/>
<vehicle id="212" depart="13970.0" route="3" type="type0"/>
<vehicle id="213" depart="13980.0" route="3" type="type1"/>
<vehicle id="214" depart="14064.0" route="3" type="type0"/>
<vehicle id="215" depart="14068.0" route="3" type="type1"/>
<vehicle id="216" depart="14102.0" route="3" type="type0"/>
<vehicle id="217" depart="14154.0" route="1" type="type1"/>
<vehicle id="218" depart="14202.0" route="3" type="type1"/>
<vehicle id="219" depart="14224.0" route="1" type="type1"/>
<vehicle id="220" depart="14290.0" route="2" type="type1"/>
<vehicle id="221" depart="14296.0" route="1" type="type1"/>
<vehicle id="222" depart="14344.0" route="1" type="type0"/>
<vehicle id="223" depart="14356.0" route="3" type="type1"/>
<vehicle id="224" depart="14358.0" route="3" type="type1"/>
<vehicle id="225" depart="14362.0" route="1" type="type0"/>
<vehicle id="226" depart="14382.0" route="1" type="type0"/>
<vehicle id="227" depart="14386.0" route="1" type="type0"/>
<vehicle id="228" depart="14418.0" route="3" type="type1"/>
<vehicle id="229" depart="14438.0" route="2" type="type0"/>
<vehicle id="230" depart="14496.0" route="4" type="type0"/>
<vehicle id="231" depart="14506.0" route="1" type="type0"/>
<vehicle id="232" depart="14576.0" route="3" type="type1"/>
<vehicle id="233" depart="14590.0" route="6" type="type0"/>
<vehicle id="234" depart="14592.0" route="2" type="type0"/>
<vehicle id="235" depart="14602.0" route="7" type="type1"/>
<vehicle id="236" depart="14614.0" route="2" type="type0"/>
<vehicle id="237" depart="14620.0" route="3" type="type1"/>
<vehicle id="238" depart="14676.0" route="3" type="type1"/>
<vehicle id="239" depart="14692.0" route="3" type="type1"/>
<vehicle id="240" depart="14716.0" route="6" type="type1"/>
<vehicle id="241" depart="14718.0" route="2" type="type1"/>
<vehicle id="242" depart="14722.0" route="2" type="type1"/>
<vehicle id="243" depart="14762.0" route="2" type="type1"/>
<vehicle id="244" depart="14768.0" route="1" type="type1"/>
<vehicle id="245" depart="14800.0" route="1" type="type0"/>
<vehicle id="246" depart="14822.0" route="6" type="type0"/>
<vehicle id="247" depart="14824.0" route="7" type="type0"/>
<vehicle id="248" depart="14826.0" route="1" type="type1"/>
<vehicle id="249" depart="14852.0" route="6" type="type1"/>
<vehicle id="250" depart="14916.0" route="2" type="type1"/>
<vehicle id="251" depart="14934.0" route="3" type="type1"/>
<vehicle id="252" depart="14948.0" route="3" type="type1"/>
<vehicle id="253" depart="14952.0" route="1" type="type0"/>
<vehicle id="254" depart="14954.0" route="2" type="type0"/>
<vehicle id="255" depart="14966.0" route="6" type="type1"/>
<vehicle id="256" depart="14980.0" route="2" type="type0"/>
<vehicle id="257" depart="15024.0" route="6" type="type0"/>
<vehicle id="258" depart="15032.0" route="6" type="type1"/>
<vehicle id="259" depart="15066.0" route="1" type="type0"/>
<vehicle id="260" depart="15074.0" route="3" type="type1"/>
<vehicle id="261" depart="15078.0" route="6" type="type0"/>
<vehicle id="262" depart="15082.0" route="6" type="type0"/>
<vehicle id="263" depart="15084.0" route="1" type="type1"/>
<vehicle id="264" depart="15086.0" route="3" type="type0"/>
<vehicle id="265" depart="15116.0" route="6" type="type0"/>
<vehicle id="266" depart="15132.0" route="3" type="type1"/>
<vehicle id="267" depart="15178.0" route="1" type="type0"/>
<vehicle id="268" depart="15180.0" route="3" type="type1"/>
<vehicle id="269" depart="15188.0" route="3" type="type1"/>
<vehicle id="270" depart="15238.0" route="3" type="type0"/>
<vehicle id="271" depart="15246.0" route="3" type="type0"/>
<vehicle id="272" depart="15270.0" route="1" type="type0"/>
<vehicle id="273" depart="15292.0" route="1" type="type1"/>
<vehicle id="274" depart="15304.0" route="1" type="type1"/>
<vehicle id="275" depart="15306.0" route="1" type="type1"/>
<vehicle id="276" depart="15336.0" route="2" type="type1"/>
<vehicle id="277" depart="15338.0" route="3" type="type0"/>
<vehicle id="278" depart="15354.0" route="1" type="type0"/>
<vehicle id="279" depart="15376.0" route="1" type="type0"/>
<vehicle id="280" depart="15382.0" route="3" type="type1"/>
<vehicle id="281" depart="15398.0" route="3" type="type1"/>
<vehicle id="282" depart="15426.0" route="3" type="type1"/>
<vehicle id="283" depart="15438.0" route="3" type="type1"/>
<vehicle id="284" depart="15460.0" route="3" type="type0"/>
<vehicle id="285" depart="15464.0" route="4" type="type1"/>
<vehicle id="286" depart="15480.0" route="1" type="type0"/>
<vehicle id="287" depart="15496.0" route="1" type="type1"/>
<vehicle id="288" depart="15504.0" route="1" type="type0"/>
<vehicle id="289" depart="15550.0" route="3" type="type0"/>
<vehicle id="290" depart="15580.0" route="6" type="type0"/>
<vehicle id="291" depart="15592.0" route="3" type="type0"/>
<vehicle id="292" depart="15618.0" route="3" type="type1"/>
<vehicle id="293" depart="15632.0" route="3" type="type1"/>
<vehicle id="294" depart="15644.0" route="3" type="type0"/>
<vehicle id="295" depart="15646.0" route="3" type="type0"/>
<vehicle id="296" depart="15670.0" route="3" type="type0"/>
<vehicle id="297" depart="15678.0" route="3" type="type0"/>
<vehicle id="298" depart="15692.0" route="3" type="type1"/>
<vehicle id="299" depart="15700.0" route="3" type="type0"/>
<vehicle id="300" depart="15706.0" route="1" type="type0"/>
<vehicle id="301" depart="15740.0" route="2" type="type0"/>
<vehicle id="302" depart="15746.0" route="2" type="type1"/>
<vehicle id="303" depart="15752.0" route="3" type="type1"/>
<vehicle id="304" depart="15754.0" route="6" type="type0"/>
<vehicle id="305" depart="15760.0" route="6" type="type0"/>
<vehicle id="306" depart="15772.0" route="1" type="type1"/>
<vehicle id="307" depart="15776.0" route="1" type="type0"/>
<vehicle id="308" depart="15796.0" route="1" type="type1"/>
<vehicle id="309" depart="15822.0" route="3" type="type0"/>
<vehicle id="310" depart="15838.0" route="1" type="type0"/>
<vehicle id="311" depart="15850.0" route="1" type="type1"/>
<vehicle id="312" depart="15866.0" route="7" type="type0"/>
<vehicle id="313" depart="15892.0" route="3" type="type1"/>
<vehicle id="314" depart="15914.0" route="2" type="type1"/>
<vehicle id="315" depart="15930.0" route="6" type="type0"/>
<vehicle id="316" depart="15938.0" route="6" type="type0"/>
<vehicle id="317" depart="15944.0" route="3" type="type1"/>
<vehicle id="318" depart="15964.0" route="2" type="type0"/>
<vehicle id="319" depart="16006.0" route="1" type="type1"/>
<vehicle id="320" depart="16010.0" route="2" type="type0"/>
<vehicle id="321" depart="16016.0" route="3" type="type0"/>
<vehicle id="322" depart="16022.0" route="2" type="type1"/>
<vehicle id="323" depart="16034.0" route="3" type="type1"/>
<vehicle id="324" depart="16050.0" route="3" type="type1"/>
<vehicle id="325" depart="16058.0" route="1" type="type1"/>
<vehicle id="326" depart="16086.0" route="1" type="type0"/>
<vehicle id="327" depart="16090.0" route="3" type="type0"/>
<vehicle id="328" depart="16104.0" route="3" type="type1"/>
<vehicle id="329" depart="16116.0" route="3" type="type1"/>
<vehicle id="330" depart="16126.0" route="1" type="type1"/>
<vehicle id="331" depart="16158.0" route="1" type="type0"/>
<vehicle id="332" depart="16202.0" route="4" type="type1"/>
<vehicle id="333" depart="16214.0" route="7" type="type0"/>
<vehicle id="334" depart="16218.0" route="7" type="type0"/>
<vehicle id="335" depart="16242.0" route="1" type="type1"/>
<vehicle id="336" depart="16272.0" route="3" type="type0"/>
<vehicle id="337" depart="16274.0" route="3" type="type1"/>
<vehicle id="338" depart="16284.0" route="2" type="type1"/>
<vehicle id="339" depart="16288.0" route="3" type="type0"/>
<vehicle id="340" depart="16296.0" route="2" type="type0"/>
<vehicle id="341" depart="16310.0" route="3" type="type0"/>
<vehicle id="342" depart="16326.0" route="2" type="type0"/>
<vehicle id="343" depart="16364.0" route="2" type="type0"/>
<vehicle id="344" depart="16392.0" route="6" type="type1"/>
<vehicle id="345" depart="16418.0" route="3" type="type1"/>
<vehicle id="346" depart="16466.0" route="1" type="type1"/>
<vehicle id="347" depart="16488.0" route="3" type="type1"/>
<vehicle id="348" depart="16524.0" route="1" type="type1"/>
<vehicle id="349" depart="16538.0" route="3" type="type0"/>
<vehicle id="350" depart="16540.0" route="6" type="type1"/>
<vehicle id="351" depart="16598.0" route="7" type="type0"/>
<vehicle id="352" depart="16602.0" route="6" type="type0"/>
<vehicle id="353" depart="16608.0" route="6" type="type1"/>
<vehicle id="354" depart="16612.0" route="6" type="type1"/>
<vehicle id="355" depart="16618.0" route="2" type="type1"/>
<vehicle id="356" depart="16620.0" route="3" type="type0"/>
<vehicle id="357" depart="16640.0" route="1" type="type0"/>
<vehicle id="358" depart="16660.0" route="2" type="type0"/>
<vehicle id="359" depart="16662.0" route="3" type="type0"/>
<vehicle id="360" depart="16674.0" route="3" type="type0"/>
<vehicle id="361" depart="16750.0" route="7" type="type1"/>
<vehicle id="362" depart="16760.0" route="3" type="type0"/>
<vehicle id="363" depart="16770.0" route="6" type="type1"/>
<vehicle id="364" depart="16782.0" route="3" type="type1"/>
<vehicle id="365" depart="16788.0" route="1" type="type1"/>
<vehicle id="366" depart="16792.0" route="3" type="type0"/>
<vehicle id="367" depart="16794.0" route="3" type="type1"/>
<vehicle id="368" depart="16816.0" route="3" type="type1"/>
<vehicle id="369" depart="16860.0" route="1" type="type0"/>
<vehicle id="370" depart="16864.0" route="1" type="type0"/>
<vehicle id="371" depart="16902.0" route="3" type="type0"/>
<vehicle id="372" depart="16940.0" route="3" type="type1"/>
<vehicle id="373" depart="16956.0" route="2" type="type0"/>
<vehicle id="374" depart="16974.0" route="3" type="type0"/>
<vehicle id="375" depart="16998.0" route="3" type="type0"/>
<vehicle id="376" depart="17002.0" route="1" type="type1"/>
<vehicle id="377" depart="17016.0" route="1" type="type1"/>
<vehicle id="378" depart="17024.0" route="2" type="type0"/>
<vehicle id="379" depart="17044.0" route="3" type="type0"/>
<vehicle id="380" depart="17046.0" route="3" type="type0"/>
<vehicle id="381" depart="17050.0" route="3" type="type0"/>
<vehicle id="382" depart="17068.0" route="1" type="type0"/>
<vehicle id="383" depart="17074.0" route="3" type="type0"/>
<vehicle id="384" depart="17092.0" route="1" type="type0"/>
<vehicle id="385" depart="17108.0" route="3" type="type0"/>
<vehicle id="386" depart="17116.0" route="3" type="type0"/>
<vehicle id="387" depart="17124.0" route="1" type="type0"/>
<vehicle id="388" depart="17150.0" route="3" type="type0"/>
<vehicle id="389" depart="17154.0" route="6" type="type0"/>
<vehicle id="390" depart="17176.0" route="1" type="type0"/>
<vehicle id="391" depart="17180.0" route="6" type="type1"/>
<vehicle id="392" depart="17224.0" route="6" type="type1"/>
<vehicle id="393" depart="17250.0" route="3" type="type0"/>
<vehicle id="394" depart="17282.0" route="3" type="type1"/>
<vehicle id="395" depart="17286.0" route="3" type="type1"/>
<vehicle id="396" depart="17304.0" route="3" type="type0"/>
<vehicle id="397" depart="17334.0" route="1" type="type1"/>
<vehicle id="398" depart="17386.0" route="1" type="type0"/>
<vehicle id="399" depart="17400.0" route="3" type="type0"/>
<vehicle id="400" depart="17438.0" route="1" type="type0"/>
<vehicle id="401" depart="17472.0" route="6" type="type1"/>
<vehicle id="402" depart="17476.0" route="6" type="type1"/>
<vehicle id="403" depart="17484.0" route="3" type="type1"/>
<vehicle id="404" depart="17498.0" route="6" type="type1"/>
<vehicle id="405" depart="17518.0" route="3" type="type0"/>
<vehicle id="406" depart="17528.0" route="1" type="type0"/>
<vehicle id="407" depart="17540.0" route="3" type="type0"/>
<vehicle id="408" depart="17546.0" route="3" type="type1"/>
<vehicle id="409" depart="17554.0" route="3" type="type0"/>
<vehicle id="410" depart="17556.0" route="3" type="type1"/>
<vehicle id="411" depart="17580.0" route="3" type="type1"/>
<vehicle id="412" depart="17586.0" route="3" type="type0"/>
<vehicle id="413" depart="17600.0" route="3" type="type0"/>
<vehicle id="414" depart="17606.0" route="1" type="type1"/>
<vehicle id="415" depart="17612.0" route="3" type="type1"/>
<vehicle id="416" depart="17650.0" route="3" type="type0"/>
<vehicle id="417" depart="17662.0" route="3" type="type0"/>
<vehicle id="418" depart="17664.0" route="3" type="type0"/>
<vehicle id="419" depart="17666.0" route="1" type="type0"/>
<vehicle id="420" depart="17678.0" route="3" type="type1"/>
<vehicle id="421" depart="17690.0" route="2" type="type1"/>
<vehicle id="422" depart="17700.0" route="1" type="type0"/>
<vehicle id="423" depart="17718.0" route="3" type="type1"/>
<vehicle id="424" depart="17728.0" route="3" type="type0"/>
<vehicle id="425" depart="17754.0" route="6" type="type0"/>
<vehicle id="426" depart="17760.0" route="4" type="type0"/>
<vehicle id="427" depart="17776.0" route="3" type="type1"/>
<vehicle id="428" depart="17782.0" route="3" type="type0"/>
<vehicle id="429" depart="17788.0" route="3" type="type1"/>
<vehicle id="430" depart="17792.0" route="1" type="type0"/>
<vehicle id="431" depart="17796.0" route="2" type="type1"/>
<vehicle id="432" depart="17798.0" route="1" type="type0"/>
<vehicle id="433" depart="17808.0" route="1" type="type0"/>
<vehicle id="434" depart="17818.0" route="6" type="type1"/>
<vehicle id="435" depart="17838.0" route="3" type="type1"/>
<vehicle id="436" depart="17844.0" route="3" type="type0"/>
<vehicle id="437" depart="17860.0" route="1" type="type1"/>
<vehicle id="438" depart="17882.0" route="3" type="type1"/>
<vehicle id="439" depart="17894.0" route="3" type="type0"/>
<vehicle id="440" depart="17918.0" route="6" type="type1"/>
<vehicle id="441" depart="17952.0" route="3" type="type0"/>
<vehicle id="442" depart="17980.0" route="3" type="type0"/>
<vehicle id="443" depart="17986.0" route="3" type="type1"/>
<vehicle id="444" depart="17996.0" route="1" type="type1"/>
<vehicle id="445" depart="17998.0" route="3" type="type0"/>
<vehicle id="446" depart="18018.0" route="1" type="type1"/>
<vehicle id="447" depart="18042.0" route="6" type="type1"/>
<vehicle id="448" depart="18074.0" route="3" type="type1"/>
<vehicle id="449" depart="18082.0" route="1" type="type1"/>
<vehicle id="450" depart="18086.0" route="3" type="type1"/>
<vehicle id="451" depart="18116.0" route="6" type="type1"/>
<vehicle id="452" depart="18118.0" route="3" type="type0"/>
<vehicle id="453" depart="18126.0" route="7" type="type0"/>
<vehicle id="454" depart="18132.0" route="1" type="type1"/>
<vehicle id="455" depart="18134.0" route="7" type="type0"/>
<vehicle id="456" depart="18140.0" route="3" type="type1"/>
<vehicle id="457" depart="18158.0" route="1" type="type1"/>
<vehicle id="458" depart="18166.0" route="7" type="type1"/>
<vehicle id="459" depart="18190.0" route="2" type="type1"/>
<vehicle id="460" depart="18234.0" route="1" type="type0"/>
<vehicle id="461" depart="18246.0" route="7" type="type1"/>
<vehicle id="462" depart="18254.0" route="2" type="type0"/>
<vehicle id="463" depart="18294.0" route="7" type="type0"/>
<vehicle id="464" depart="18318.0" route="1" type="type1"/>
<vehicle id="465" depart="18342.0" route="1" type="type1"/>
<vehicle id="466" depart="18344.0" route="6" type="type1"/>
<vehicle id="467" depart="18352.0" route="2" type="type0"/>
<vehicle id="468" depart="18404.0" route="6" type="type1"/>
<vehicle id="469" depart="18416.0" route="6" type="type0"/>
<vehicle id="470" depart="18420.0" route="2" type="type0"/>
<vehicle id="471" depart="18428.0" route="2" type="type1"/>
<vehicle id="472" depart="18438.0" route="1" type="type1"/>
<vehicle id="473" depart="18440.0" route="1" type="type1"/>
<vehicle id="474" depart="18442.0" route="3" type="type1"/>
<vehicle id="475" depart="18460.0" route="3" type="type0"/>
<vehicle id="476" depart="18466.0" route="2" type="type1"/>
<vehicle id="477" depart="18504.0" route="3" type="type0"/>
<vehicle id="478" depart="18526.0" route="7" type="type0"/>
<vehicle id="479" depart="18572.0" route="1" type="type1"/>
<vehicle id="480" depart="18592.0" route="6" type="type1"/>
<vehicle id="481" depart="18600.0" route="7" type="type1"/>
<vehicle id="482" depart="18606.0" route="2" type="type0"/>
<vehicle id="483" depart="18616.0" route="1" type="type0"/>
<vehicle id="484" depart="18618.0" route="1" type="type1"/>
<vehicle id="485" depart="18634.0" route="7" type="type0"/>
<vehicle id="486" depart="18644.0" route="2" type="type1"/>
<vehicle id="487" depart="18648.0" route="7" type="type0"/>